<?xml version="1.0" encoding="UTF-8"?>

<!-- generated on 01/26/18 17:55:07 by SUMO netconvert Version 0.31.0
<?xml version="1.0" encoding="UTF-8"?>

<configuration xmlns:xsi="http://www.w3.org/2001/XMLSchema-instance" xsi:noNamespaceSchemaLocation="http://sumo.dlr.de/xsd/netconvertConfiguration.xsd">

    <input>
        <sumo-net-file value=".\neumarkRealWorld.net.xml"/>
    </input>

    <output>
        <output-file value="neumarkRealWorldNoTrains.net.xml"/>
        <output.street-names value="true"/>
    </output>

    <edge_removal>
        <remove-edges.by-vclass value="rail_slow,rail_fast"/>
    </edge_removal>

    <processing>
        <no-turnarounds value="true"/>
        <offset.disable-normalization value="true"/>
        <lefthand value="false"/>
        <junctions.corner-detail value="5"/>
        <rectangular-lane-cut value="false"/>
        <walkingareas value="false"/>
    </processing>

</configuration>
-->

<net version="0.27" junctionCornerDetail="5" xmlns:xsi="http://www.w3.org/2001/XMLSchema-instance" xsi:noNamespaceSchemaLocation="http://sumo.dlr.de/xsd/net_file.xsd">

    <location netOffset="-651673.34,-5656206.94" convBoundary="972.84,452.32,8608.90,7809.63" origBoundary="11.055720,51.037365,11.287864,51.116313" projParameter="+proj=utm +zone=32 +ellps=WGS84 +datum=WGS84 +units=m +no_defs"/>

    <type id="highway.bridleway" priority="1" numLanes="1" speed="2.78" allow="pedestrian" oneway="1" width="2.00"/>
    <type id="highway.bus_guideway" priority="1" numLanes="1" speed="8.33" allow="bus" oneway="1"/>
    <type id="highway.cycleway" priority="1" numLanes="1" speed="5.56" allow="bicycle" oneway="0" width="1.00"/>
    <type id="highway.footway" priority="1" numLanes="1" speed="2.78" allow="pedestrian" oneway="1" width="2.00"/>
    <type id="highway.ford" priority="1" numLanes="1" speed="2.78" allow="army" oneway="0"/>
    <type id="highway.living_street" priority="3" numLanes="1" speed="2.78" disallow="tram rail_urban rail rail_electric ship" oneway="0"/>
    <type id="highway.motorway" priority="13" numLanes="2" speed="44.44" allow="private emergency authority army vip passenger hov taxi bus coach delivery truck trailer motorcycle evehicle custom1 custom2" oneway="1"/>
    <type id="highway.motorway_link" priority="12" numLanes="1" speed="22.22" allow="private emergency authority army vip passenger hov taxi bus coach delivery truck trailer motorcycle evehicle custom1 custom2" oneway="1"/>
    <type id="highway.path" priority="1" numLanes="1" speed="2.78" allow="bicycle pedestrian" oneway="1" width="2.00"/>
    <type id="highway.pedestrian" priority="1" numLanes="1" speed="2.78" allow="pedestrian" oneway="1" width="2.00"/>
    <type id="highway.primary" priority="9" numLanes="2" speed="27.78" disallow="tram rail_urban rail rail_electric ship" oneway="0"/>
    <type id="highway.primary_link" priority="8" numLanes="1" speed="22.22" disallow="tram rail_urban rail rail_electric ship" oneway="0"/>
    <type id="highway.raceway" priority="14" numLanes="2" speed="83.33" allow="vip" oneway="0"/>
    <type id="highway.residential" priority="4" numLanes="1" speed="13.89" disallow="tram rail_urban rail rail_electric ship" oneway="0"/>
    <type id="highway.secondary" priority="7" numLanes="2" speed="27.78" disallow="tram rail_urban rail rail_electric ship" oneway="0"/>
    <type id="highway.secondary_link" priority="6" numLanes="1" speed="22.22" disallow="tram rail_urban rail rail_electric ship" oneway="0"/>
    <type id="highway.service" priority="2" numLanes="1" speed="5.56" allow="delivery bicycle pedestrian" oneway="0"/>
    <type id="highway.services" priority="1" numLanes="1" speed="8.33" disallow="tram rail_urban rail rail_electric ship" oneway="0"/>
    <type id="highway.stairs" priority="1" numLanes="1" speed="1.39" allow="pedestrian" oneway="1" width="2.00"/>
    <type id="highway.step" priority="1" numLanes="1" speed="1.39" allow="pedestrian" oneway="1" width="2.00"/>
    <type id="highway.steps" priority="1" numLanes="1" speed="1.39" allow="pedestrian" oneway="1" width="2.00"/>
    <type id="highway.tertiary" priority="6" numLanes="1" speed="22.22" disallow="tram rail_urban rail rail_electric ship" oneway="0"/>
    <type id="highway.tertiary_link" priority="5" numLanes="1" speed="22.22" disallow="tram rail_urban rail rail_electric ship" oneway="0"/>
    <type id="highway.track" priority="1" numLanes="1" speed="5.56" disallow="tram rail_urban rail rail_electric ship" oneway="0"/>
    <type id="highway.trunk" priority="11" numLanes="2" speed="27.78" disallow="tram rail_urban rail rail_electric bicycle pedestrian ship" oneway="0"/>
    <type id="highway.trunk_link" priority="10" numLanes="1" speed="22.22" disallow="tram rail_urban rail rail_electric bicycle pedestrian ship" oneway="0"/>
    <type id="highway.unclassified" priority="5" numLanes="1" speed="13.89" disallow="tram rail_urban rail rail_electric ship" oneway="0"/>
    <type id="highway.unsurfaced" priority="1" numLanes="1" speed="8.33" disallow="tram rail_urban rail rail_electric ship" oneway="0"/>
    <type id="railway.light_rail" priority="15" numLanes="1" speed="27.78" allow="rail_urban" oneway="1"/>
    <type id="railway.preserved" priority="15" numLanes="1" speed="27.78" allow="rail" oneway="1"/>
    <type id="railway.rail" priority="15" numLanes="1" speed="83.33" allow="rail rail_electric" oneway="1"/>
    <type id="railway.subway" priority="15" numLanes="1" speed="27.78" allow="rail_urban" oneway="1"/>
    <type id="railway.tram" priority="15" numLanes="1" speed="13.89" allow="tram" oneway="1"/>

    <edge id=":1018289835_0" function="internal">
        <lane id=":1018289835_0_0" index="0" disallow="tram rail_urban rail rail_electric ship" speed="13.89" length="9.43" shape="5640.79,4786.48 5638.48,4788.07 5636.91,4789.16 5635.42,4790.37 5633.38,4792.28"/>
    </edge>
    <edge id=":1018289835_1" function="internal">
        <lane id=":1018289835_1_0" index="0" disallow="tram rail_urban rail rail_electric ship" speed="13.89" length="5.73" shape="5640.79,4786.48 5637.49,4788.17 5635.47,4788.14"/>
    </edge>
    <edge id=":1018289835_2" function="internal">
        <lane id=":1018289835_2_0" index="0" disallow="tram rail_urban rail rail_electric ship" speed="13.89" length="3.30" shape="5640.79,4786.48 5638.90,4783.78"/>
    </edge>
    <edge id=":1018289835_3" function="internal">
        <lane id=":1018289835_3_0" index="0" disallow="tram rail_urban rail rail_electric ship" speed="13.89" length="2.41" shape="5640.79,4786.48 5639.31,4786.51 5638.50,4786.08"/>
    </edge>
    <edge id=":1018289835_16" function="internal">
        <lane id=":1018289835_16_0" index="0" speed="13.89" length="6.94" shape="5635.47,4788.14 5634.86,4788.13 5632.92,4786.37 5631.65,4782.88"/>
    </edge>
    <edge id=":1018289835_17" function="internal">
        <lane id=":1018289835_17_0" index="0" speed="13.89" length="2.41" shape="5638.50,4786.08 5638.36,4785.16 5638.90,4783.78"/>
    </edge>
    <edge id=":1018289835_4" function="internal">
        <lane id=":1018289835_4_0" index="0" disallow="tram rail_urban rail rail_electric ship" speed="13.89" length="9.43" shape="5640.79,4786.48 5638.48,4788.07 5636.91,4789.16 5635.42,4790.37 5633.38,4792.28"/>
    </edge>
    <edge id=":1018289835_5" function="internal">
        <lane id=":1018289835_5_0" index="0" disallow="tram rail_urban rail rail_electric ship" speed="13.89" length="12.67" shape="5640.79,4786.48 5637.49,4788.17 5634.86,4788.13 5632.92,4786.37 5631.65,4782.88"/>
    </edge>
    <edge id=":1018289835_6" function="internal">
        <lane id=":1018289835_6_0" index="0" disallow="tram rail_urban rail rail_electric ship" speed="13.89" length="3.30" shape="5640.79,4786.48 5638.90,4783.78"/>
    </edge>
    <edge id=":1018289835_7" function="internal">
        <lane id=":1018289835_7_0" index="0" disallow="tram rail_urban rail rail_electric ship" speed="13.89" length="4.82" shape="5640.79,4786.48 5639.31,4786.51 5638.50,4786.08 5638.36,4785.16 5638.90,4783.78"/>
    </edge>
    <edge id=":1018289835_8" function="internal">
        <lane id=":1018289835_8_0" index="0" disallow="tram rail_urban rail rail_electric ship" speed="13.89" length="5.58" shape="5634.88,4782.19 5635.44,4783.73 5636.29,4784.50 5637.45,4784.52 5638.90,4783.78"/>
    </edge>
    <edge id=":1018289835_9" function="internal">
        <lane id=":1018289835_9_0" index="0" disallow="tram rail_urban rail rail_electric ship" speed="13.89" length="5.58" shape="5634.88,4782.19 5635.44,4783.73 5636.29,4784.50 5637.45,4784.52 5638.90,4783.78"/>
    </edge>
    <edge id=":1018289835_10" function="internal">
        <lane id=":1018289835_10_0" index="0" disallow="tram rail_urban rail rail_electric ship" speed="13.89" length="10.61" shape="5634.88,4782.19 5635.36,4785.51 5635.27,4788.29 5634.61,4790.55 5633.38,4792.28"/>
    </edge>
    <edge id=":1018289835_11" function="internal">
        <lane id=":1018289835_11_0" index="0" disallow="tram rail_urban rail rail_electric ship" speed="13.89" length="4.82" shape="5634.88,4782.19 5634.33,4783.57 5633.61,4784.15 5632.72,4783.92 5631.65,4782.88"/>
    </edge>
    <edge id=":1018289835_12" function="internal">
        <lane id=":1018289835_12_0" index="0" disallow="tram rail_urban rail rail_electric ship" speed="13.89" length="7.29" shape="5631.08,4789.91 5631.76,4788.85 5632.08,4787.32 5632.05,4785.33 5631.65,4782.88"/>
    </edge>
    <edge id=":1018289835_13" function="internal">
        <lane id=":1018289835_13_0" index="0" disallow="tram rail_urban rail rail_electric ship" speed="13.89" length="9.96" shape="5631.08,4789.91 5633.24,4787.89 5634.80,4786.61 5636.47,4785.45 5638.90,4783.78"/>
    </edge>
    <edge id=":1018289835_14" function="internal">
        <lane id=":1018289835_14_0" index="0" disallow="tram rail_urban rail rail_electric ship" speed="13.89" length="9.96" shape="5631.08,4789.91 5633.24,4787.89 5634.80,4786.61 5636.47,4785.45 5638.90,4783.78"/>
    </edge>
    <edge id=":1018289835_15" function="internal">
        <lane id=":1018289835_15_0" index="0" disallow="tram rail_urban rail rail_electric ship" speed="13.89" length="2.41" shape="5631.08,4789.91 5632.55,4789.64 5633.42,4789.95"/>
    </edge>
    <edge id=":1018289835_18" function="internal">
        <lane id=":1018289835_18_0" index="0" speed="13.89" length="2.41" shape="5633.42,4789.95 5633.69,4790.83 5633.38,4792.28"/>
    </edge>
    <edge id=":1018289884_0" function="internal">
        <lane id=":1018289884_0_0" index="0" disallow="tram rail_urban rail rail_electric ship" speed="13.89" length="8.30" shape="5911.09,4815.43 5908.63,4815.26 5906.94,4815.21 5905.26,4815.37 5902.85,4815.85"/>
    </edge>
    <edge id=":1018289884_1" function="internal">
        <lane id=":1018289884_1_0" index="0" disallow="tram rail_urban rail rail_electric ship" speed="13.89" length="5.17" shape="5911.09,4815.43 5908.12,4814.80 5906.40,4813.54"/>
    </edge>
    <edge id=":1018289884_2" function="internal">
        <lane id=":1018289884_2_0" index="0" disallow="tram rail_urban rail rail_electric ship" speed="13.89" length="2.41" shape="5911.09,4815.43 5909.91,4814.53 5909.55,4813.68"/>
    </edge>
    <edge id=":1018289884_9" function="internal">
        <lane id=":1018289884_9_0" index="0" speed="13.89" length="5.73" shape="5906.40,4813.54 5906.18,4813.37 5905.25,4811.14 5905.35,4808.11"/>
    </edge>
    <edge id=":1018289884_10" function="internal">
        <lane id=":1018289884_10_0" index="0" speed="13.89" length="2.41" shape="5909.55,4813.68 5910.02,4812.88 5911.31,4812.14"/>
    </edge>
    <edge id=":1018289884_3" function="internal">
        <lane id=":1018289884_3_0" index="0" disallow="tram rail_urban rail rail_electric ship" speed="13.89" length="5.14" shape="5908.60,4808.69 5908.55,4810.12 5908.99,4811.17 5909.91,4811.84 5911.31,4812.14"/>
    </edge>
    <edge id=":1018289884_4" function="internal">
        <lane id=":1018289884_4_0" index="0" disallow="tram rail_urban rail rail_electric ship" speed="13.89" length="9.77" shape="5908.60,4808.69 5907.83,4811.44 5906.62,4813.55 5904.96,4815.02 5902.85,4815.85"/>
    </edge>
    <edge id=":1018289884_5" function="internal">
        <lane id=":1018289884_5_0" index="0" disallow="tram rail_urban rail rail_electric ship" speed="13.89" length="4.82" shape="5908.60,4808.69 5907.57,4809.76 5906.69,4810.02 5905.95,4809.47 5905.35,4808.11"/>
    </edge>
    <edge id=":1018289884_6" function="internal">
        <lane id=":1018289884_6_0" index="0" disallow="tram rail_urban rail rail_electric ship" speed="13.89" length="5.88" shape="5902.14,4812.63 5903.28,4812.14 5904.20,4811.22 5904.89,4809.88 5905.35,4808.11"/>
    </edge>
    <edge id=":1018289884_7" function="internal">
        <lane id=":1018289884_7_0" index="0" disallow="tram rail_urban rail rail_electric ship" speed="13.89" length="9.24" shape="5902.14,4812.63 5904.82,4812.09 5906.69,4811.90 5908.57,4811.95 5911.31,4812.14"/>
    </edge>
    <edge id=":1018289884_8" function="internal">
        <lane id=":1018289884_8_0" index="0" disallow="tram rail_urban rail rail_electric ship" speed="13.89" length="2.41" shape="5902.14,4812.63 5903.53,4813.17 5904.11,4813.89"/>
    </edge>
    <edge id=":1018289884_11" function="internal">
        <lane id=":1018289884_11_0" index="0" speed="13.89" length="2.41" shape="5904.11,4813.89 5903.88,4814.78 5902.85,4815.85"/>
    </edge>
    <edge id=":1018289943_0" function="internal">
        <lane id=":1018289943_0_0" index="0" disallow="tram rail_urban rail rail_electric ship" speed="5.56" length="4.82" shape="3664.10,4917.25 3662.74,4917.86 3661.82,4917.77 3661.34,4916.98 3661.30,4915.49"/>
    </edge>
    <edge id=":1018290083_0" function="internal">
        <lane id=":1018290083_0_0" index="0" disallow="tram rail_urban rail rail_electric ship" speed="13.89" length="6.14" shape="5727.34,4934.72 5723.35,4930.04"/>
    </edge>
    <edge id=":1018290083_1" function="internal">
        <lane id=":1018290083_1_0" index="0" disallow="tram rail_urban rail rail_electric ship" speed="13.89" length="2.51" shape="5727.34,4934.72 5727.12,4933.24 5727.46,4932.38 5727.56,4932.36"/>
    </edge>
    <edge id=":1018290083_6" function="internal">
        <lane id=":1018290083_6_0" index="0" speed="13.89" length="2.31" shape="5727.56,4932.36 5728.35,4932.14 5729.79,4932.51"/>
    </edge>
    <edge id=":1018290083_2" function="internal">
        <lane id=":1018290083_2_0" index="0" disallow="tram rail_urban rail rail_electric ship" speed="13.89" length="5.93" shape="5725.94,4928.00 5729.79,4932.51"/>
    </edge>
    <edge id=":1018290083_3" function="internal">
        <lane id=":1018290083_3_0" index="0" disallow="tram rail_urban rail rail_electric ship" speed="13.89" length="2.41" shape="5725.94,4928.00 5726.06,4929.48 5725.67,4930.32"/>
    </edge>
    <edge id=":1018290083_7" function="internal">
        <lane id=":1018290083_7_0" index="0" speed="13.89" length="2.41" shape="5725.67,4930.32 5724.76,4930.51 5723.35,4930.04"/>
    </edge>
    <edge id=":1018290083_4" function="internal">
        <lane id=":1018290083_4_0" index="0" disallow="tram rail_urban rail rail_electric ship" speed="13.89" length="5.23" shape="5722.96,4934.82 5723.77,4933.55 5724.11,4932.33 5723.97,4931.16 5723.35,4930.04"/>
    </edge>
    <edge id=":1018290083_5" function="internal">
        <lane id=":1018290083_5_0" index="0" disallow="tram rail_urban rail rail_electric ship" speed="13.89" length="8.31" shape="5722.96,4934.82 5724.97,4932.73 5726.78,4931.65 5728.39,4931.57 5729.79,4932.51"/>
    </edge>
    <edge id=":1018290358_0" function="internal">
        <lane id=":1018290358_0_0" index="0" disallow="tram rail_urban rail rail_electric ship" speed="13.89" length="10.71" shape="5884.95,4819.82 5881.98,4820.57 5879.83,4821.32 5877.74,4822.22 5874.90,4823.43"/>
    </edge>
    <edge id=":1018290358_1" function="internal">
        <lane id=":1018290358_1_0" index="0" disallow="tram rail_urban rail rail_electric ship" speed="13.89" length="12.00" shape="5884.95,4819.82 5881.78,4820.05 5879.24,4819.33 5876.80,4817.95 5873.93,4816.19"/>
    </edge>
    <edge id=":1018290358_2" function="internal">
        <lane id=":1018290358_2_0" index="0" disallow="tram rail_urban rail rail_electric ship" speed="13.89" length="2.41" shape="5884.95,4819.82 5883.57,4819.28 5882.99,4818.56"/>
    </edge>
    <edge id=":1018290358_9" function="internal">
        <lane id=":1018290358_9_0" index="0" speed="13.89" length="2.41" shape="5882.99,4818.56 5883.21,4817.67 5884.24,4816.60"/>
    </edge>
    <edge id=":1018290358_3" function="internal">
        <lane id=":1018290358_3_0" index="0" disallow="tram rail_urban rail rail_electric ship" speed="13.89" length="9.71" shape="5875.54,4813.32 5877.97,4814.93 5879.71,4816.19 5881.54,4816.83 5884.24,4816.60"/>
    </edge>
    <edge id=":1018290358_4" function="internal">
        <lane id=":1018290358_4_0" index="0" disallow="tram rail_urban rail rail_electric ship" speed="13.89" length="15.08" shape="5875.54,4813.32 5879.32,4816.10 5880.47,4818.71 5879.00,4821.15 5874.90,4823.43"/>
    </edge>
    <edge id=":1018290358_5" function="internal">
        <lane id=":1018290358_5_0" index="0" disallow="tram rail_urban rail rail_electric ship" speed="13.89" length="4.82" shape="5875.54,4813.32 5876.22,4814.64 5876.17,4815.57 5875.41,4816.08 5873.93,4816.19"/>
    </edge>
    <edge id=":1018290358_6" function="internal">
        <lane id=":1018290358_6_0" index="0" disallow="tram rail_urban rail rail_electric ship" speed="13.89" length="6.23" shape="5873.66,4820.37 5875.35,4819.43 5875.96,4818.42 5875.48,4817.34 5873.93,4816.19"/>
    </edge>
    <edge id=":1018290358_7" function="internal">
        <lane id=":1018290358_7_0" index="0" disallow="tram rail_urban rail rail_electric ship" speed="13.89" length="11.26" shape="5873.66,4820.37 5876.58,4819.14 5878.86,4818.18 5881.18,4817.38 5884.24,4816.60"/>
    </edge>
    <edge id=":1018290358_8" function="internal">
        <lane id=":1018290358_8_0" index="0" disallow="tram rail_urban rail rail_electric ship" speed="13.89" length="2.41" shape="5873.66,4820.37 5875.12,4820.67 5875.81,4821.28"/>
    </edge>
    <edge id=":1018290358_10" function="internal">
        <lane id=":1018290358_10_0" index="0" speed="13.89" length="2.41" shape="5875.81,4821.28 5875.74,4822.20 5874.90,4823.43"/>
    </edge>
    <edge id=":1018290635_0" function="internal">
        <lane id=":1018290635_0_0" index="0" disallow="tram rail_urban rail rail_electric ship" speed="13.89" length="10.03" shape="5834.78,4889.76 5824.75,4889.73"/>
    </edge>
    <edge id=":1018290635_1" function="internal">
        <lane id=":1018290635_1_0" index="0" disallow="tram rail_urban rail rail_electric ship" speed="13.89" length="5.73" shape="5834.78,4889.76 5831.17,4889.25 5829.48,4888.04"/>
    </edge>
    <edge id=":1018290635_2" function="internal">
        <lane id=":1018290635_2_0" index="0" disallow="tram rail_urban rail rail_electric ship" speed="13.89" length="2.41" shape="5834.78,4889.76 5833.54,4888.93 5833.13,4888.11"/>
    </edge>
    <edge id=":1018290635_9" function="internal">
        <lane id=":1018290635_9_0" index="0" speed="13.89" length="6.79" shape="5829.48,4888.04 5829.04,4887.73 5828.41,4885.20 5829.28,4881.66"/>
    </edge>
    <edge id=":1018290635_10" function="internal">
        <lane id=":1018290635_10_0" index="0" speed="13.89" length="2.41" shape="5833.13,4888.11 5833.54,4887.28 5834.78,4886.46"/>
    </edge>
    <edge id=":1018290635_3" function="internal">
        <lane id=":1018290635_3_0" index="0" disallow="tram rail_urban rail rail_electric ship" speed="13.89" length="5.54" shape="5832.34,4882.87 5831.96,4884.44 5832.24,4885.56 5833.18,4886.23 5834.78,4886.46"/>
    </edge>
    <edge id=":1018290635_4" function="internal">
        <lane id=":1018290635_4_0" index="0" disallow="tram rail_urban rail rail_electric ship" speed="13.89" length="10.88" shape="5832.34,4882.87 5830.84,4885.89 5829.08,4888.04 5827.05,4889.32 5824.75,4889.73"/>
    </edge>
    <edge id=":1018290635_5" function="internal">
        <lane id=":1018290635_5_0" index="0" disallow="tram rail_urban rail rail_electric ship" speed="13.89" length="4.82" shape="5832.34,4882.87 5831.12,4883.72 5830.20,4883.80 5829.59,4883.11 5829.28,4881.66"/>
    </edge>
    <edge id=":1018290635_6" function="internal">
        <lane id=":1018290635_6_0" index="0" disallow="tram rail_urban rail rail_electric ship" speed="13.89" length="6.92" shape="5824.78,4886.43 5826.03,4886.14 5827.20,4885.25 5828.28,4883.75 5829.28,4881.66"/>
    </edge>
    <edge id=":1018290635_7" function="internal">
        <lane id=":1018290635_7_0" index="0" disallow="tram rail_urban rail rail_electric ship" speed="13.89" length="10.00" shape="5824.78,4886.43 5834.78,4886.46"/>
    </edge>
    <edge id=":1018290635_8" function="internal">
        <lane id=":1018290635_8_0" index="0" disallow="tram rail_urban rail rail_electric ship" speed="13.89" length="2.41" shape="5824.78,4886.43 5826.01,4887.27 5826.41,4888.09"/>
    </edge>
    <edge id=":1018290635_11" function="internal">
        <lane id=":1018290635_11_0" index="0" speed="13.89" length="2.41" shape="5826.41,4888.09 5826.00,4888.92 5824.75,4889.73"/>
    </edge>
    <edge id=":1018290644_0" function="internal">
        <lane id=":1018290644_0_0" index="0" disallow="tram rail_urban rail rail_electric ship" speed="5.56" length="4.82" shape="4644.73,4942.32 4645.17,4940.90 4645.84,4940.27 4646.75,4940.43 4647.89,4941.38"/>
    </edge>
    <edge id=":1018291019_0" function="internal">
        <lane id=":1018291019_0_0" index="0" disallow="tram rail_urban rail rail_electric ship" speed="9.73" length="5.77" shape="4774.47,4161.56 4773.18,4161.68 4772.09,4162.30 4771.19,4163.43 4770.47,4165.05"/>
    </edge>
    <edge id=":1018291019_1" function="internal">
        <lane id=":1018291019_1_0" index="0" disallow="tram rail_urban rail rail_electric ship" speed="13.89" length="9.47" shape="4774.47,4161.56 4765.08,4160.26"/>
    </edge>
    <edge id=":1018291019_2" function="internal">
        <lane id=":1018291019_2_0" index="0" disallow="tram rail_urban rail rail_electric ship" speed="13.89" length="2.54" shape="4774.47,4161.56 4773.31,4160.62 4772.98,4159.76 4773.05,4159.65"/>
    </edge>
    <edge id=":1018291019_9" function="internal">
        <lane id=":1018291019_9_0" index="0" speed="13.89" length="2.27" shape="4773.05,4159.65 4773.46,4158.98 4774.77,4158.27"/>
    </edge>
    <edge id=":1018291019_3" function="internal">
        <lane id=":1018291019_3_0" index="0" disallow="tram rail_urban rail rail_electric ship" speed="13.89" length="9.21" shape="4765.65,4157.01 4774.77,4158.27"/>
    </edge>
    <edge id=":1018291019_4" function="internal">
        <lane id=":1018291019_4_0" index="0" disallow="tram rail_urban rail rail_electric ship" speed="9.73" length="5.10" shape="4765.65,4157.01 4768.60,4157.98 4770.06,4159.33"/>
    </edge>
    <edge id=":1018291019_5" function="internal">
        <lane id=":1018291019_5_0" index="0" disallow="tram rail_urban rail rail_electric ship" speed="13.89" length="2.41" shape="4765.65,4157.01 4766.73,4158.04 4766.99,4158.92"/>
    </edge>
    <edge id=":1018291019_10" function="internal">
        <lane id=":1018291019_10_0" index="0" speed="9.73" length="5.99" shape="4770.06,4159.33 4770.39,4159.64 4771.01,4162.00 4770.47,4165.05"/>
    </edge>
    <edge id=":1018291019_11" function="internal">
        <lane id=":1018291019_11_0" index="0" speed="13.89" length="2.41" shape="4766.99,4158.92 4766.44,4159.66 4765.08,4160.26"/>
    </edge>
    <edge id=":1018291019_6" function="internal">
        <lane id=":1018291019_6_0" index="0" disallow="tram rail_urban rail rail_electric ship" speed="9.73" length="5.18" shape="4767.34,4164.02 4767.59,4162.59 4767.30,4161.49 4766.46,4160.71 4765.08,4160.26"/>
    </edge>
    <edge id=":1018291019_7" function="internal">
        <lane id=":1018291019_7_0" index="0" disallow="tram rail_urban rail rail_electric ship" speed="9.73" length="10.25" shape="4767.34,4164.02 4768.57,4161.32 4770.22,4159.46 4772.29,4158.45 4774.77,4158.27"/>
    </edge>
    <edge id=":1018291019_8" function="internal">
        <lane id=":1018291019_8_0" index="0" disallow="tram rail_urban rail rail_electric ship" speed="5.56" length="4.82" shape="4767.34,4164.02 4768.51,4163.10 4769.42,4162.97 4770.08,4163.62 4770.47,4165.05"/>
    </edge>
    <edge id=":1018291215_0" function="internal">
        <lane id=":1018291215_0_0" index="0" disallow="tram rail_urban rail rail_electric ship" speed="13.89" length="4.92" shape="5676.50,5018.68 5675.20,5018.38 5674.09,5018.55 5673.17,5019.21 5672.45,5020.33"/>
    </edge>
    <edge id=":1018291215_1" function="internal">
        <lane id=":1018291215_1_0" index="0" disallow="tram rail_urban rail rail_electric ship" speed="13.89" length="3.41" shape="5676.50,5018.68 5674.75,5017.57 5674.16,5016.37"/>
    </edge>
    <edge id=":1018291215_2" function="internal">
        <lane id=":1018291215_2_0" index="0" disallow="tram rail_urban rail rail_electric ship" speed="13.89" length="2.30" shape="5676.50,5018.68 5675.64,5017.46 5675.56,5016.66"/>
    </edge>
    <edge id=":1018291215_9" function="internal">
        <lane id=":1018291215_9_0" index="0" speed="13.89" length="5.51" shape="5674.16,5016.37 5673.94,5015.94 5674.06,5013.79 5675.12,5011.11"/>
    </edge>
    <edge id=":1018291215_10" function="internal">
        <lane id=":1018291215_10_0" index="0" speed="13.89" length="2.52" shape="5675.56,5016.66 5675.55,5016.54 5676.23,5015.92 5677.68,5015.59"/>
    </edge>
    <edge id=":1018291215_3" function="internal">
        <lane id=":1018291215_3_0" index="0" disallow="tram rail_urban rail rail_electric ship" speed="13.89" length="7.90" shape="5668.55,5013.50 5670.57,5014.10 5672.34,5013.91 5673.85,5012.91 5675.12,5011.11"/>
    </edge>
    <edge id=":1018291215_4" function="internal">
        <lane id=":1018291215_4_0" index="0" disallow="tram rail_urban rail rail_electric ship" speed="13.89" length="9.41" shape="5668.55,5013.50 5671.15,5014.43 5673.07,5014.66 5675.00,5014.84 5677.68,5015.59"/>
    </edge>
    <edge id=":1018291215_5" function="internal">
        <lane id=":1018291215_5_0" index="0" disallow="tram rail_urban rail rail_electric ship" speed="13.89" length="6.04" shape="5668.55,5013.50 5670.96,5014.94 5672.42,5016.56 5672.70,5017.58"/>
    </edge>
    <edge id=":1018291215_11" function="internal">
        <lane id=":1018291215_11_0" index="0" speed="13.89" length="2.84" shape="5672.70,5017.58 5672.91,5018.36 5672.45,5020.33"/>
    </edge>
    <edge id=":1018291215_6" function="internal">
        <lane id=":1018291215_6_0" index="0" disallow="tram rail_urban rail rail_electric ship" speed="13.89" length="9.73" shape="5669.45,5018.96 5670.87,5016.48 5672.20,5015.00 5673.58,5013.53 5675.12,5011.11"/>
    </edge>
    <edge id=":1018291215_7" function="internal">
        <lane id=":1018291215_7_0" index="0" disallow="tram rail_urban rail rail_electric ship" speed="13.89" length="10.00" shape="5669.45,5018.96 5670.91,5016.67 5672.77,5015.35 5675.03,5014.99 5677.68,5015.59"/>
    </edge>
    <edge id=":1018291215_8" function="internal">
        <lane id=":1018291215_8_0" index="0" disallow="tram rail_urban rail rail_electric ship" speed="13.89" length="4.82" shape="5669.45,5018.96 5670.71,5018.18 5671.63,5018.15 5672.21,5018.86 5672.45,5020.33"/>
    </edge>
    <edge id=":1018291274_0" function="internal">
        <lane id=":1018291274_0_0" index="0" disallow="tram rail_urban rail rail_electric ship" speed="9.73" length="6.49" shape="5914.57,3040.44 5914.23,3038.35 5913.65,3036.74 5912.82,3035.61 5911.74,3034.96"/>
    </edge>
    <edge id=":1018291274_1" function="internal">
        <lane id=":1018291274_1_0" index="0" disallow="tram rail_urban rail rail_electric ship" speed="9.73" length="12.33" shape="5914.57,3040.44 5914.77,3037.01 5916.15,3034.99 5918.71,3034.40 5922.44,3035.23"/>
    </edge>
    <edge id=":1018291274_2" function="internal">
        <lane id=":1018291274_2_0" index="0" allow="delivery bicycle pedestrian" speed="5.56" length="4.82" shape="5914.57,3040.44 5915.27,3039.13 5916.06,3038.64 5916.92,3038.98 5917.85,3040.14"/>
    </edge>
    <edge id=":1018291274_3" function="internal">
        <lane id=":1018291274_3_0" index="0" allow="delivery bicycle pedestrian" speed="9.73" length="5.07" shape="5921.34,3038.34 5919.70,3037.94 5918.58,3038.11 5917.96,3038.84 5917.85,3040.14"/>
    </edge>
    <edge id=":1018291274_4" function="internal">
        <lane id=":1018291274_4_0" index="0" disallow="tram rail_urban rail rail_electric ship" speed="13.89" length="10.17" shape="5921.34,3038.34 5911.74,3034.96"/>
    </edge>
    <edge id=":1018291274_5" function="internal">
        <lane id=":1018291274_5_0" index="0" disallow="tram rail_urban rail rail_electric ship" speed="13.89" length="2.41" shape="5921.34,3038.34 5920.45,3037.14 5920.34,3036.23"/>
    </edge>
    <edge id=":1018291274_9" function="internal">
        <lane id=":1018291274_9_0" index="0" speed="13.89" length="2.41" shape="5920.34,3036.23 5921.00,3035.59 5922.44,3035.23"/>
    </edge>
    <edge id=":1018291274_6" function="internal">
        <lane id=":1018291274_6_0" index="0" disallow="tram rail_urban rail rail_electric ship" speed="13.89" length="10.20" shape="5912.82,3031.84 5922.44,3035.23"/>
    </edge>
    <edge id=":1018291274_7" function="internal">