<?xml version="1.0" encoding="UTF-8"?>

<!-- generated on 04/01/2018 17:48:35 by Netedit Version 0.31.0
<?xml version="1.0" encoding="UTF-8"?>

<configuration xmlns:xsi="http://www.w3.org/2001/XMLSchema-instance" xsi:noNamespaceSchemaLocation="http://sumo.dlr.de/xsd/netconvertConfiguration.xsd">

    <input>
        <sumo-net-file value="C:\opt\git\Sumo2VRepRoadTransformer\Sumo2VRepRoadTransformer\res\exampleMap\superSimpleMap.net.xml"/>
    </input>

    <output>
        <output-file value="C:\opt\git\Sumo2VRepRoadTransformer\Sumo2VRepRoadTransformer\res\exampleMap\superSimpleMap.net.xml"/>
    </output>

    <processing>
        <no-turnarounds value="true"/>
        <offset.disable-normalization value="true"/>
        <lefthand value="false"/>
        <junctions.corner-detail value="0"/>
        <rectangular-lane-cut value="false"/>
        <walkingareas value="false"/>
    </processing>

</configuration>
-->

<net version="0.27" xmlns:xsi="http://www.w3.org/2001/XMLSchema-instance" xsi:noNamespaceSchemaLocation="http://sumo.dlr.de/xsd/net_file.xsd">

    <location netOffset="0.00,0.00" convBoundary="-100.00,0.00,0.00,100.00" origBoundary="-10000000000.00,-10000000000.00,10000000000.00,10000000000.00" projParameter="!"/>

    <edge id=":gneJ10_0" function="internal">
        <lane id=":gneJ10_0_0" index="0" speed="13.89" length="7.90" shape="-101.65,3.25 -101.34,1.11 -100.43,-0.43 -98.89,-1.34 -96.75,-1.65"/>
    </edge>
    <edge id=":gneJ10_1" function="internal">
        <lane id=":gneJ10_1_0" index="0" speed="13.89" length="2.58" shape="-96.75,1.65 -97.45,1.75 -97.95,2.05 -98.25,2.55 -98.35,3.25"/>
    </edge>
    <edge id=":gneJ7_0" function="internal">
        <lane id=":gneJ7_0_0" index="0" speed="13.89" length="7.90" shape="-96.75,101.65 -98.89,101.34 -100.43,100.43 -101.34,98.89 -101.65,96.75"/>
    </edge>
    <edge id=":gneJ7_1" function="internal">
        <lane id=":gneJ7_1_0" index="0" speed="13.89" length="2.58" shape="-98.35,96.75 -98.25,97.45 -97.95,97.95 -97.45,98.25 -96.75,98.35"/>
    </edge>
    <edge id=":gneJ8_0" function="internal">
        <lane id=":gneJ8_0_0" index="0" speed="13.89" length="7.90" shape="1.65,96.75 1.34,98.89 0.42,100.43 -1.11,101.34 -3.25,101.65"/>
    </edge>
    <edge id=":gneJ8_1" function="internal">
        <lane id=":gneJ8_1_0" index="0" speed="13.89" length="2.58" shape="-3.25,98.35 -2.55,98.25 -2.05,97.95 -1.75,97.45 -1.65,96.75"/>
    </edge>
    <edge id=":gneJ9_0" function="internal">
        <lane id=":gneJ9_0_0" index="0" speed="13.89" length="2.58" shape="-1.65,3.25 -1.75,2.55 -2.05,2.05 -2.55,1.75 -3.25,1.65"/>
    </edge>
    <edge id=":gneJ9_1" function="internal">
        <lane id=":gneJ9_1_0" index="0" speed="13.89" length="7.90" shape="-3.25,-1.65 -1.11,-1.34 0.43,-0.43 1.34,1.11 1.65,3.25"/>
    </edge>

    <edge id="-gneE6" from="gneJ8" to="gneJ7" priority="1">
        <lane id="-gneE6_0" index="0" speed="13.89" length="93.50" shape="-3.25,101.65 -96.75,101.65"/>
    </edge>
    <edge id="-gneE7" from="gneJ9" to="gneJ8" priority="1">
        <lane id="-gneE7_0" index="0" speed="13.89" length="93.50" shape="1.65,3.25 1.65,96.75"/>
    </edge>
    <edge id="-gneE8" from="gneJ10" to="gneJ9" priority="1">
        <lane id="-gneE8_0" index="0" speed="13.89" length="93.50" shape="-96.75,-1.65 -3.25,-1.65"/>
    </edge>
    <edge id="-gneE9" from="gneJ7" to="gneJ10" priority="1">
        <lane id="-gneE9_0" index="0" speed="13.89" length="93.50" shape="-101.65,96.75 -101.65,3.25"/>
    </edge>
    <edge id="gneE6" from="gneJ7" to="gneJ8" priority="1">
        <lane id="gneE6_0" index="0" speed="13.89" length="93.50" shape="-96.75,98.35 -3.25,98.35"/>
    </edge>
    <edge id="gneE7" from="gneJ8" to="gneJ9" priority="1">
        <lane id="gneE7_0" index="0" speed="13.89" length="93.50" shape="-1.65,96.75 -1.65,3.25"/>
    </edge>
    <edge id="gneE8" from="gneJ9" to="gneJ10" priority="1">
        <lane id="gneE8_0" index="0" speed="13.89" length="93.50" shape="-3.25,1.65 -96.75,1.65"/>
    </edge>
    <edge id="gneE9" from="gneJ10" to="gneJ7" priority="1">
        <lane id="gneE9_0" index="0" speed="13.89" length="93.50" shape="-98.35,3.25 -98.35,96.75"/>
    </edge>

    <junction id="gneJ10" type="priority" x="-100.00" y="0.00" incLanes="-gneE9_0 gneE8_0" intLanes=":gneJ10_0_0 :gneJ10_1_0" shape="-103.25,3.25 -96.75,3.25 -96.75,-3.25">
        <request index="0" response="00" foes="00" cont="0"/>
        <request index="1" response="00" foes="00" cont="0"/>
    </junction>
    <junction id="gneJ7" type="priority" x="-100.00" y="100.00" incLanes="-gneE6_0 gneE9_0" intLanes=":gneJ7_0_0 :gneJ7_1_0" shape="-96.75,103.25 -96.75,96.75 -103.25,96.75">
        <request index="0" response="00" foes="00" cont="0"/>
        <request index="1" response="00" foes="00" cont="0"/>
    </junction>
    <junction id="gneJ8" type="priority" x="0.00" y="100.00" incLanes="-gneE7_0 gneE6_0" intLanes=":gneJ8_0_0 :gneJ8_1_0" shape="3.25,96.75 -3.25,96.75 -3.25,103.25">
        <request index="0" response="00" foes="00" cont="0"/>
        <request index="1" response="00" foes="00" cont="0"/>
    </junction>
    <junction id="gneJ9" type="priority" x="0.00" y="0.00" incLanes="gneE7_0 -gneE8_0" intLanes=":gneJ9_0_0 :gneJ9_1_0" shape="-3.25,3.25 3.25,3.25 -3.25,-3.25">
        <request index="0" response="00" foes="00" cont="0"/>
        <request index="1" response="00" foes="00" cont="0"/>
    </junction>

    <connection from="-gneE6" to="-gneE9" fromLane="0" toLane="0" via=":gneJ7_0_0" dir="l" state="M"/>
    <connection from="-gneE7" to="-gneE6" fromLane="0" toLane="0" via=":gneJ8_0_0" dir="l" state="M"/>
    <connection from="-gneE8" to="-gneE7" fromLane="0" toLane="0" via=":gneJ9_1_0" dir="l" state="M"/>
    <connection from="-gneE9" to="-gneE8" fromLane="0" toLane="0" via=":gneJ10_0_0" dir="l" state="M"/>
    <connection from="gneE6" to="gneE7" fromLane="0" toLane="0" via=":gneJ8_1_0" dir="r" state="M"/>
    <connection from="gneE7" to="gneE8" fromLane="0" toLane="0" via=":gneJ9_0_0" dir="r" state="M"/>
    <connection from="gneE8" to="gneE9" fromLane="0" toLane="0" via=":gneJ10_1_0" dir="r" state="M"/>
    <connection from="gneE9" to="gneE6" fromLane="0" toLane="0" via=":gneJ7_1_0" dir="r" state="M"/>

    <connection from=":gneJ10_0" to="-gneE8" fromLane="0" toLane="0" dir="s" state="M"/>
    <connection from=":gneJ10_1" to="gneE9" fromLane="0" toLane="0" dir="s" state="M"/>
    <connection from=":gneJ7_0" to="-gneE9" fromLane="0" toLane="0" dir="s" state="M"/>
    <connection from=":gneJ7_1" to="gneE6" fromLane="0" toLane="0" dir="s" state="M"/>
    <connection from=":gneJ8_0" to="-gneE6" fromLane="0" toLane="0" dir="s" state="M"/>
    <connection from=":gneJ8_1" to="gneE7" fromLane="0" toLane="0" dir="s" state="M"/>
    <connection from=":gneJ9_0" to="gneE8" fromLane="0" toLane="0" dir="s" state="M"/>
    <connection from=":gneJ9_1" to="-gneE7" fromLane="0" toLane="0" dir="s" state="M"/>

</net>
