<?xml version="1.0" encoding="UTF-8"?>

<!-- generated on 09/01/2018 11:36:57 by Netedit Version 0.31.0
<?xml version="1.0" encoding="UTF-8"?>

<configuration xmlns:xsi="http://www.w3.org/2001/XMLSchema-instance" xsi:noNamespaceSchemaLocation="http://sumo.dlr.de/xsd/netconvertConfiguration.xsd">

    <output>
        <output-file value="C:\opt\git\Sumo2VRepRoadTransformer\Sumo2VRepRoadTransformer\res\exampleMap\testMap5Streets.net.xml"/>
    </output>

    <processing>
        <no-turnarounds value="true"/>
        <offset.disable-normalization value="true"/>
    </processing>

</configuration>
-->

<net version="0.27" xmlns:xsi="http://www.w3.org/2001/XMLSchema-instance" xsi:noNamespaceSchemaLocation="http://sumo.dlr.de/xsd/net_file.xsd">

    <location netOffset="0.00,0.00" convBoundary="-200.00,-100.00,200.00,200.00" origBoundary="10000000000.00,10000000000.00,-10000000000.00,-10000000000.00" projParameter="!"/>

    <edge id=":gneJ0_0" function="internal">
        <lane id=":gneJ0_0_0" index="0" speed="13.89" length="7.90" shape="-197.83,102.93 -199.61,101.70 -200.57,100.19 -200.71,98.41 -200.02,96.36"/>
    </edge>
    <edge id=":gneJ0_1" function="internal">
        <lane id=":gneJ0_1_0" index="0" speed="13.89" length="2.58" shape="-197.07,97.83 -197.29,98.50 -197.25,99.08 -196.94,99.58 -196.36,99.98"/>
    </edge>
    <edge id=":gneJ1_0" function="internal">
        <lane id=":gneJ1_0_0" index="0" speed="13.89" length="4.55" shape="2.19,200.75 1.10,201.16 0.00,201.30 -1.10,201.16 -2.19,200.75"/>
    </edge>
    <edge id=":gneJ1_1" function="internal">
        <lane id=":gneJ1_1_0" index="0" speed="13.89" length="1.49" shape="-0.72,197.80 -0.36,197.93 -0.00,197.98 0.36,197.93 0.72,197.80"/>
    </edge>
    <edge id=":gneJ2_0" function="internal">
        <lane id=":gneJ2_0_0" index="0" speed="13.89" length="7.90" shape="200.02,96.36 200.71,98.41 200.57,100.19 199.61,101.70 197.83,102.93"/>
    </edge>
    <edge id=":gneJ2_1" function="internal">
        <lane id=":gneJ2_1_0" index="0" speed="13.89" length="2.58" shape="196.36,99.98 196.94,99.58 197.25,99.08 197.29,98.50 197.07,97.83"/>
    </edge>
    <edge id=":gneJ3_0" function="internal">
        <lane id=":gneJ3_0_0" index="0" speed="13.89" length="1.78" shape="99.42,-97.47 99.17,-97.85 98.84,-98.13 98.45,-98.29 97.99,-98.35"/>
    </edge>
    <edge id=":gneJ3_1" function="internal">
        <lane id=":gneJ3_1_0" index="0" speed="13.89" length="5.45" shape="97.99,-101.65 99.40,-101.48 100.60,-100.97 101.59,-100.13 102.37,-98.94"/>
    </edge>
    <edge id=":gneJ4_0" function="internal">
        <lane id=":gneJ4_0_0" index="0" speed="13.89" length="1.78" shape="-97.99,-98.35 -98.45,-98.29 -98.84,-98.13 -99.17,-97.85 -99.42,-97.47"/>
    </edge>
    <edge id=":gneJ4_1" function="internal">
        <lane id=":gneJ4_1_0" index="0" speed="13.89" length="5.45" shape="-102.37,-98.94 -101.59,-100.13 -100.60,-100.97 -99.40,-101.48 -97.99,-101.65"/>
    </edge>

    <edge id="-gneE0" from="gneJ1" to="gneJ0" priority="1">
        <lane id="-gneE0_0" index="0" speed="13.89" length="218.73" shape="-2.19,200.75 -197.83,102.93"/>
    </edge>
    <edge id="-gneE1" from="gneJ2" to="gneJ1" priority="1">
        <lane id="-gneE1_0" index="0" speed="13.89" length="218.73" shape="197.83,102.93 2.19,200.75"/>
    </edge>
    <edge id="-gneE2" from="gneJ3" to="gneJ2" priority="1">
        <lane id="-gneE2_0" index="0" speed="13.89" length="218.35" shape="102.37,-98.94 200.02,96.36"/>
    </edge>
    <edge id="-gneE3" from="gneJ4" to="gneJ3" priority="1">
        <lane id="-gneE3_0" index="0" speed="13.89" length="195.98" shape="-97.99,-101.65 97.99,-101.65"/>
    </edge>
    <edge id="-gneE4" from="gneJ0" to="gneJ4" priority="1">
        <lane id="-gneE4_0" index="0" speed="13.89" length="218.35" shape="-200.02,96.36 -102.37,-98.94"/>
    </edge>
    <edge id="gneE0" from="gneJ0" to="gneJ1" priority="1">
        <lane id="gneE0_0" index="0" speed="13.89" length="218.73" shape="-196.36,99.98 -0.72,197.80"/>
    </edge>
    <edge id="gneE1" from="gneJ1" to="gneJ2" priority="1">
        <lane id="gneE1_0" index="0" speed="13.89" length="218.73" shape="0.72,197.80 196.36,99.98"/>
    </edge>
    <edge id="gneE2" from="gneJ2" to="gneJ3" priority="1">
        <lane id="gneE2_0" index="0" speed="13.89" length="218.35" shape="197.07,97.83 99.42,-97.47"/>
    </edge>
    <edge id="gneE3" from="gneJ3" to="gneJ4" priority="1">
        <lane id="gneE3_0" index="0" speed="13.89" length="195.98" shape="97.99,-98.35 -97.99,-98.35"/>
    </edge>
    <edge id="gneE4" from="gneJ4" to="gneJ0" priority="1">
        <lane id="gneE4_0" index="0" speed="13.89" length="218.35" shape="-99.42,-97.47 -197.07,97.83"/>
    </edge>

    <junction id="gneJ0" type="priority" x="-200.00" y="100.00" incLanes="-gneE0_0 gneE4_0" intLanes=":gneJ0_0_0 :gneJ0_1_0" shape="-198.55,104.36 -195.64,98.55 -201.45,95.64">
        <request index="0" response="00" foes="00" cont="0"/>
        <request index="1" response="00" foes="00" cont="0"/>
    </junction>
    <junction id="gneJ1" type="priority" x="0.00" y="200.00" incLanes="-gneE1_0 gneE0_0" intLanes=":gneJ1_0_0 :gneJ1_1_0" shape="2.91,202.18 -0.00,196.37 -2.91,202.18">
        <request index="0" response="00" foes="00" cont="0"/>
        <request index="1" response="00" foes="00" cont="0"/>
    </junction>
    <junction id="gneJ2" type="priority" x="200.00" y="100.00" incLanes="-gneE2_0 gneE1_0" intLanes=":gneJ2_0_0 :gneJ2_1_0" shape="201.45,95.64 195.64,98.55 198.55,104.36">
        <request index="0" response="00" foes="00" cont="0"/>
        <request index="1" response="00" foes="00" cont="0"/>
    </junction>
    <junction id="gneJ3" type="priority" x="100.00" y="-100.00" incLanes="gneE2_0 -gneE3_0" intLanes=":gneJ3_0_0 :gneJ3_1_0" shape="97.99,-96.75 103.81,-99.66 97.99,-103.25">
        <request index="0" response="00" foes="00" cont="0"/>
        <request index="1" response="00" foes="00" cont="0"/>
    </junction>
    <junction id="gneJ4" type="priority" x="-100.00" y="-100.00" incLanes="gneE3_0 -gneE4_0" intLanes=":gneJ4_0_0 :gneJ4_1_0" shape="-97.99,-96.75 -97.99,-103.25 -103.81,-99.66">
        <request index="0" response="00" foes="00" cont="0"/>
        <request index="1" response="00" foes="00" cont="0"/>
    </junction>

    <connection from="-gneE0" to="-gneE4" fromLane="0" toLane="0" via=":gneJ0_0_0" dir="l" state="M"/>
    <connection from="-gneE1" to="-gneE0" fromLane="0" toLane="0" via=":gneJ1_0_0" dir="l" state="M"/>
    <connection from="-gneE2" to="-gneE1" fromLane="0" toLane="0" via=":gneJ2_0_0" dir="l" state="M"/>
    <connection from="-gneE3" to="-gneE2" fromLane="0" toLane="0" via=":gneJ3_1_0" dir="l" state="M"/>
    <connection from="-gneE4" to="-gneE3" fromLane="0" toLane="0" via=":gneJ4_1_0" dir="l" state="M"/>
    <connection from="gneE0" to="gneE1" fromLane="0" toLane="0" via=":gneJ1_1_0" dir="r" state="M"/>
    <connection from="gneE1" to="gneE2" fromLane="0" toLane="0" via=":gneJ2_1_0" dir="r" state="M"/>
    <connection from="gneE2" to="gneE3" fromLane="0" toLane="0" via=":gneJ3_0_0" dir="r" state="M"/>
    <connection from="gneE3" to="gneE4" fromLane="0" toLane="0" via=":gneJ4_0_0" dir="r" state="M"/>
    <connection from="gneE4" to="gneE0" fromLane="0" toLane="0" via=":gneJ0_1_0" dir="r" state="M"/>

    <connection from=":gneJ0_0" to="-gneE4" fromLane="0" toLane="0" dir="s" state="M"/>
    <connection from=":gneJ0_1" to="gneE0" fromLane="0" toLane="0" dir="s" state="M"/>
    <connection from=":gneJ1_0" to="-gneE0" fromLane="0" toLane="0" dir="s" state="M"/>
    <connection from=":gneJ1_1" to="gneE1" fromLane="0" toLane="0" dir="s" state="M"/>
    <connection from=":gneJ2_0" to="-gneE1" fromLane="0" toLane="0" dir="s" state="M"/>
    <connection from=":gneJ2_1" to="gneE2" fromLane="0" toLane="0" dir="s" state="M"/>
    <connection from=":gneJ3_0" to="gneE3" fromLane="0" toLane="0" dir="s" state="M"/>
    <connection from=":gneJ3_1" to="-gneE2" fromLane="0" toLane="0" dir="s" state="M"/>
    <connection from=":gneJ4_0" to="gneE4" fromLane="0" toLane="0" dir="s" state="M"/>
    <connection from=":gneJ4_1" to="-gneE3" fromLane="0" toLane="0" dir="s" state="M"/>

</net>
